TNTS107.m
function mpc = TNTS107
%% 
%220/500kV输电网测试系统-广西大学电气工程学院。
%此版本于2024年6月14日创建。
%这是一个107节点的合成网络测试系统，不代表真实网络。
%它是以中国某省的输电网为蓝本，基于各类公开机组及变电站信息，通过演化模型生成的测试系统。其网络特征与真实电网相似但不包含任何实际线路。
%其他数据格式位于同一文件夹中的excel表格中。
%% MATPOWER Case Format : Version 2
mpc.version = '2';
%%-----  Power Flow Data  -----%%
%% system MVA base
mpc.baseMVA = 100;
%% bus data
%	bus_i	type	Pd	Qd	Gs	Bs	area	Vm	Va	baseKV	zone	Vmax	Vmin
mpc.bus = [
1	1	157.1432947	31.42865894	0	0	1	1.008651035	12.24083876	220	1	1.06	0.94
2	1	528.6944396	105.7388879	0	0	1	1.009523813	12.53491295	500	1	1.06	0.94
3	1	227.2902799	45.45805598	0	0	1	1.013898763	12.96256298	500	1	1.06	0.94
4	1	356.581506	71.31630121	0	0	1	1.01407564	12.76231588	500	1	1.06	0.94
5	1	173.2583045	34.6516609	0	0	1	1.008980776	12.38657091	220	1	1.06	0.94
6	1	68.22340062	13.64468012	0	0	1	1.009127229	12.52806352	220	1	1.06	0.94
7	1	127.3088193	25.46176385	0	0	1	1.008502436	12.3067578	220	1	1.06	0.94
8	1	47.52570381	9.505140762	0	0	1	1.016051205	13.23811252	500	1	1.06	0.94
9	1	49.69055404	9.938110807	0	0	1	1.01235656	14.7731869	220	1	1.06	0.94
10	1	72.41576425	14.48315285	0	0	1	1.002540941	12.65601374	220	1	1.06	0.94
11	1	181.2966772	36.25933544	0	0	1	0.99945336	12.35499981	220	1	1.06	0.94
12	1	97.99758583	19.59951717	0	0	1	1.009304006	18.86375704	220	1	1.06	0.94
13	1	1337.747847	267.5495695	0	0	1	0.991602785	9.194442746	220	1	1.06	0.94
14	1	394.5287971	78.90575943	0	0	1	0.992607069	9.369176819	220	1	1.06	0.94
15	1	458.4232237	91.68464475	0	0	1	0.992414709	9.212593769	220	1	1.06	0.94
16	1	488.6224279	97.72448558	0	0	1	1.000680264	10.36378	500	1	1.06	0.94
17	1	81.16282631	16.23256526	0	0	1	1.002986091	10.22915454	220	1	1.06	0.94
18	1	37.34366621	7.468733243	0	0	1	1.002403813	13.58557858	220	1	1.06	0.94
19	1	83.19809042	16.63961808	0	0	1	1.004025649	12.03815167	500	1	1.06	0.94
20	1	30.11542954	6.023085909	0	0	1	1.009924367	18.24770166	220	1	1.06	0.94
21	1	59.76396797	11.95279359	0	0	1	1.010067764	18.07373451	220	1	1.06	0.94
22	1	47.99831197	9.599662393	0	0	1	1.011564218	21.41659219	220	1	1.06	0.94
23	1	188.0619239	37.61238479	0	0	1	0.990815056	15.82040341	220	1	1.06	0.94
24	1	187.7888107	37.55776214	0	0	1	0.987662439	15.35098499	220	1	1.06	0.94
25	1	77.41435767	15.48287153	0	0	1	1.004318462	15.34236524	220	1	1.06	0.94
26	1	41.73625402	8.347250805	0	0	1	0.99667831	17.10844412	220	1	1.06	0.94
27	1	71.63824763	14.32764953	0	0	1	0.999085453	17.1485506	220	1	1.06	0.94
28	1	157.4757021	31.49514042	0	0	1	1.01052197	24.8353137	220	1	1.06	0.94
29	1	74.32144227	14.86428845	0	0	1	1.005420285	21.73359214	220	1	1.06	0.94
30	1	49.81061174	9.962122347	0	0	1	1.011763808	16.73430703	220	1	1.06	0.94
31	1	82.87984219	16.57596844	0	0	1	1.006716708	21.57653592	220	1	1.06	0.94
32	1	58.81875167	11.76375033	0	0	1	1.011887104	22.55382716	220	1	1.06	0.94
33	1	55.96976306	11.19395261	0	0	1	1.012839569	25.09957679	220	1	1.06	0.94
34	1	60.65582529	12.13116506	0	0	1	1.003067622	18.29821876	220	1	1.06	0.94
35	1	54.58624083	10.91724817	0	0	1	1.007867773	19.94253863	220	1	1.06	0.94
36	1	57.18558562	11.43711712	0	0	1	1.004579965	17.64051318	220	1	1.06	0.94
37	1	116.2616777	23.25233555	0	0	1	1.002091223	10.91749406	220	1	1.06	0.94
38	1	149.9097793	29.98195585	0	0	1	1.003050554	11.25238006	220	1	1.06	0.94
39	1	227.869542	45.5739084	0	0	1	1.004633783	9.932686756	220	1	1.06	0.94
40	1	69.80307971	13.96061594	0	0	1	1.001387863	9.272103163	220	1	1.06	0.94
41	1	39.6933672	7.938673441	0	0	1	1.018768871	14.31034497	220	1	1.06	0.94
42	1	109.6431841	21.92863682	0	0	1	0.989977082	10.57590014	220	1	1.06	0.94
43	1	100.3348466	20.06696932	0	0	1	1.004122168	15.76161166	220	1	1.06	0.94
44	1	41.30209412	8.260418824	0	0	1	1.007437027	15.18574097	220	1	1.06	0.94
45	1	78.682305	15.736461	0	0	1	1.011303451	15.57869647	220	1	1.06	0.94
46	1	128.2845264	25.65690528	0	0	1	1.003554298	16.23294888	220	1	1.06	0.94
47	1	171.0702372	34.21404745	0	0	1	1.011411579	15.80130343	500	1	1.06	0.94
48	1	48.37944756	9.675889513	0	0	1	1.011647466	15.74620981	500	1	1.06	0.94
49	1	27.15400593	5.430801185	0	0	1	1.024440337	15.88141399	220	1	1.06	0.94
50	1	27.61517999	5.523035998	0	0	1	1.018798335	16.66953094	220	1	1.06	0.94
51	3	127.8671829	25.57343658	0	0	1	1.011083087	16.01185361	500	1	1.06	0.94
52	1	49.69627106	9.939254211	0	0	1	1.01037654	15.57311963	220	1	1.06	0.94
53	1	98.54070405	19.70814081	0	0	1	1.004059803	20.19020167	220	1	1.06	0.94
54	1	56.77777054	11.35555411	0	0	1	0.99650662	25.66434626	220	1	1.06	0.94
55	1	324.209188	64.8418376	0	0	1	1.005147869	11.45809489	220	1	1.06	0.94
56	1	105.305861	21.0611722	0	0	1	0.999731765	12.94258182	220	1	1.06	0.94
57	1	235.4827256	47.09654513	0	0	1	0.996415508	13.32186208	220	1	1.06	0.94
58	1	115.5145781	23.10291561	0	0	1	1.000227852	9.086560896	220	1	1.06	0.94
59	1	627.3491999	125.46984	0	0	1	1.004982712	9.779462876	500	1	1.06	0.94
60	1	934.6588351	186.931767	0	0	1	0.957709899	10.51067584	220	1	1.06	0.94
61	1	35.15118368	7.030236735	0	0	1	0.957584528	11.60280749	220	1	1.06	0.94
62	1	346.0444465	69.2088893	0	0	1	0.986511651	10.78253242	220	1	1.06	0.94
63	1	356.9430191	71.38860383	0	0	1	0.992163824	11.78938901	500	1	1.06	0.94
64	1	580.7687123	116.1537425	0	0	1	0.969541732	19.76233792	220	1	1.06	0.94
65	1	261.5085701	52.30171402	0	0	1	0.987761218	12.10107732	220	1	1.06	0.94
66	1	494.6339722	98.92679443	0	0	1	0.996549675	11.37988561	500	1	1.06	0.94
67	1	1342.778837	268.5557674	0	0	1	0.973317485	10.11699086	220	1	1.06	0.94
68	1	63.37903914	12.67580783	0	0	1	0.995672382	12.34199307	220	1	1.06	0.94
69	1	88.77600994	17.75520199	0	0	1	1.014813433	13.57482929	220	1	1.06	0.94
70	1	72.58346391	14.51669278	0	0	1	1.00791052	12.82512358	220	1	1.06	0.94
71	1	39.66859339	7.933718679	0	0	1	1.000577488	13.01327524	220	1	1.06	0.94
72	1	38.71575438	7.743150877	0	0	1	1.004658756	14.88405498	220	1	1.06	0.94
73	1	9.495993507	1.899198701	0	0	1	1.00952079	16.27275185	220	1	1.06	0.94
74	1	48.25557848	9.651115696	0	0	1	1.021883498	17.33586384	220	1	1.06	0.94
75	1	10.86236464	2.172472928	0	0	1	1.038086027	18.70211801	220	1	1.06	0.94
76	1	211.3320682	42.26641365	0	0	1	1.035230887	16.99860579	500	1	1.06	0.94
77	1	96.51115698	19.3022314	0	0	1	1.013545071	13.21244393	500	1	1.06	0.94
78	1	133.7976529	26.75953057	0	0	1	1.020799001	13.79582861	500	1	1.06	0.94
79	1	392.0303625	78.40607251	0	0	1	0.999126673	15.42946294	220	1	1.06	0.94
80	1	106.3978145	21.2795629	0	0	1	1.003624039	15.56456265	220	1	1.06	0.94
81	1	35.04541854	7.009083707	0	0	1	1.015851117	14.89842891	220	1	1.06	0.94
82	1	42.7786599	8.555731981	0	0	1	1.004018524	16.78101138	220	1	1.06	0.94
83	1	25.15494969	5.030989938	0	0	1	1.01190068	19.79270363	220	1	1.06	0.94
84	1	208.2467756	41.64935511	0	0	1	0.992146053	12.59829557	220	1	1.06	0.94
85	1	132.1035051	26.42070102	0	0	1	1.005236934	13.25563849	220	1	1.06	0.94
86	1	180.5077264	36.10154529	0	0	1	1.002168938	14.66621045	220	1	1.06	0.94
87	1	14.38596327	2.877192655	0	0	1	1.001196408	15.80886222	500	1	1.06	0.94
88	1	13.5341252	2.706825041	0	0	1	1.012734509	15.7477232	220	1	1.06	0.94
89	1	11.9657522	2.393150441	0	0	1	1.014206101	15.5448269	220	1	1.06	0.94
90	1	93.42014724	18.68402945	0	0	1	1.001918867	11.70095139	220	1	1.06	0.94
91	1	48.8692068	9.77384136	0	0	1	0.997088445	13.2637266	220	1	1.06	0.94
92	1	26.85672014	5.371344029	0	0	1	1.017222485	15.37674212	220	1	1.06	0.94
93	1	39.35796788	7.871593575	0	0	1	1.015305031	15.06234141	220	1	1.06	0.94
94	1	63.03030008	12.60606002	0	0	1	1.019228597	15.34423539	220	1	1.06	0.94
95	1	554.1387678	110.8277536	0	0	1	1.009700501	10.82287646	500	1	1.06	0.94
96	1	30.71190675	6.14238135	0	0	1	1.005039736	11.89885752	220	1	1.06	0.94
97	1	39.23791016	7.847582032	0	0	1	1.000129058	10.98371536	220	1	1.06	0.94
98	1	63.94121417	12.78824283	0	0	1	1.0037988	10.95926757	220	1	1.06	0.94
99	1	23.48367008	4.696734016	0	0	1	1.022773837	13.68943821	500	1	1.06	0.94
100	1	50.34991861	10.06998372	0	0	1	1.001943031	11.64502906	220	1	1.06	0.94
101	1	62.69490074	12.53898015	0	0	1	1.0189795	14.92586634	220	1	1.06	0.94
102	1	55.27419058	11.05483812	0	0	1	1.018640102	14.43131882	220	1	1.06	0.94
103	1	53.46570216	10.69314043	0	0	1	1.026266241	15.71394567	220	1	1.06	0.94
104	1	36.03637111	7.207274221	0	0	1	1.026937207	16.01156991	220	1	1.06	0.94
105	1	129.3802912	25.87605825	0	0	1	1.015603504	13.12275517	500	1	1.06	0.94
106	1	122.5312845	24.5062569	0	0	1	1.013361402	12.66555443	220	1	1.06	0.94
107	1	22.78047489	4.556094978	0	0	1	1.026325169	15.75247738	220	1	1.06	0.94



];

%% generator data
%	bus	Pg	Qg	Qmax	Qmin	Vg	mBase	status	Pmax	Pmin	Pc1	Pc2	Qc1min	Qc1max	Qc2min	Qc2max	ramp_agc	ramp_10	ramp_30	ramp_q	apf
mpc.gen = [
78	6.000000067	4.278396868	15	-4.5	1.020799001	100	1	30	6	0	0	0	0	0	0	0	0	0	0	0
78	6.000000067	4.278396868	15	-4.5	1.020799001	100	1	30	6	0	0	0	0	0	0	0	0	0	0	0
78	6.000000067	4.278396868	15	-4.5	1.020799001	100	1	30	6	0	0	0	0	0	0	0	0	0	0	0
45	14.00000007	10.95425798	35	-10.5	1.011303451	100	1	70	14	0	0	0	0	0	0	0	0	0	0	0
45	14.00000007	10.95425798	35	-10.5	1.011303451	100	1	70	14	0	0	0	0	0	0	0	0	0	0	0
69	27.00000007	10.04400751	67.5	-20.25	1.014813433	100	1	135	27	0	0	0	0	0	0	0	0	0	0	0
69	27.00000007	10.04400751	67.5	-20.25	1.014813433	100	1	135	27	0	0	0	0	0	0	0	0	0	0	0
69	27.00000007	10.04400751	67.5	-20.25	1.014813433	100	1	135	27	0	0	0	0	0	0	0	0	0	0	0
69	27.00000007	10.04400751	67.5	-20.25	1.014813433	100	1	135	27	0	0	0	0	0	0	0	0	0	0	0
68	30.00000007	13.05577403	75	-22.5	0.995672382	100	1	150	30	0	0	0	0	0	0	0	0	0	0	0
68	30.00000007	13.05577403	75	-22.5	0.995672382	100	1	150	30	0	0	0	0	0	0	0	0	0	0	0
51	30.00000007	17.17215601	75	-22.5	1.011083087	100	1	150	30	0	0	0	0	0	0	0	0	0	0	0
51	30.00000007	17.17215601	75	-22.5	1.011083087	100	1	150	30	0	0	0	0	0	0	0	0	0	0	0
68	30.00000007	13.05577403	75	-22.5	0.995672382	100	1	150	30	0	0	0	0	0	0	0	0	0	0	0
77	31.00000007	9.694168412	77.5	-23.25	1.013545071	100	1	155	31	0	0	0	0	0	0	0	0	0	0	0
77	31.00000007	9.694168412	77.5	-23.25	1.013545071	100	1	155	31	0	0	0	0	0	0	0	0	0	0	0
77	31.00000007	9.694168412	77.5	-23.25	1.013545071	100	1	155	31	0	0	0	0	0	0	0	0	0	0	0
30	60.00000007	26.44419876	150	-45	1.011763808	100	1	300	60	0	0	0	0	0	0	0	0	0	0	0
30	60.00000007	26.44419876	150	-45	1.011763808	100	1	300	60	0	0	0	0	0	0	0	0	0	0	0
95	60.00000007	22.34414821	150	-45	1.009700501	100	1	300	60	0	0	0	0	0	0	0	0	0	0	0
95	60.00000007	22.34414821	150	-45	1.009700501	100	1	300	60	0	0	0	0	0	0	0	0	0	0	0
45	64.00000007	39.66019536	160	-48	1.011303451	100	1	320	64	0	0	0	0	0	0	0	0	0	0	0
45	64.00000007	39.66019536	160	-48	1.011303451	100	1	320	64	0	0	0	0	0	0	0	0	0	0	0
99	66.00000007	13.30163649	165	-49.5	1.022773837	100	1	330	66	0	0	0	0	0	0	0	0	0	0	0
99	66.00000007	13.30163649	165	-49.5	1.022773837	100	1	330	66	0	0	0	0	0	0	0	0	0	0	0
68	70.00000007	4.929951668	175	-52.5	0.995672382	100	1	350	70	0	0	0	0	0	0	0	0	0	0	0
68	70.00000007	4.929951668	175	-52.5	0.995672382	100	1	350	70	0	0	0	0	0	0	0	0	0	0	0
78	70.00000007	-3.32990125	175	-52.5	1.020799001	100	1	350	70	0	0	0	0	0	0	0	0	0	0	0
78	70.00000007	-3.32990125	175	-52.5	1.020799001	100	1	350	70	0	0	0	0	0	0	0	0	0	0	0
78	70.00000007	-3.32990125	175	-52.5	1.020799001	100	1	350	70	0	0	0	0	0	0	0	0	0	0	0
19	70.00000007	24.01216108	175	-52.5	1.004025649	100	1	350	70	0	0	0	0	0	0	0	0	0	0	0
19	70.00000007	24.01216108	175	-52.5	1.004025649	100	1	350	70	0	0	0	0	0	0	0	0	0	0	0
77	72.00000007	-4.493768413	180	-54	1.013545071	100	1	360	72	0	0	0	0	0	0	0	0	0	0	0
95	72.00000007	21.33731324	180	-54	1.009700501	100	1	360	72	0	0	0	0	0	0	0	0	0	0	0
95	72.00000007	21.33731324	180	-54	1.009700501	100	1	360	72	0	0	0	0	0	0	0	0	0	0	0
55	120.0000001	69.30731296	300	-90	1.005147869	100	1	600	120	0	0	0	0	0	0	0	0	0	0	0
55	120.0000001	69.30731296	300	-90	1.005147869	100	1	600	120	0	0	0	0	0	0	0	0	0	0	0
47	126.0000001	-13.60143959	315	-94.5	1.011411579	100	1	630	126	0	0	0	0	0	0	0	0	0	0	0
47	126.0000001	-13.60143959	315	-94.5	1.011411579	100	1	630	126	0	0	0	0	0	0	0	0	0	0	0
51	126.0000001	2.500012855	315	-94.5	1.011083087	100	1	630	126	0	0	0	0	0	0	0	0	0	0	0
51	126.0000001	2.500012855	315	-94.5	1.011083087	100	1	630	126	0	0	0	0	0	0	0	0	0	0	0
47	132.0000001	-16.82784476	330	-99	1.011411579	100	1	660	132	0	0	0	0	0	0	0	0	0	0	0
47	132.0000001	-16.82784476	330	-99	1.011411579	100	1	660	132	0	0	0	0	0	0	0	0	0	0	0
12	132.0000001	137.0175344	330	-99	1.009304006	100	1	660	132	0	0	0	0	0	0	0	0	0	0	0
12	132.0000001	137.0175344	330	-99	1.009304006	100	1	660	132	0	0	0	0	0	0	0	0	0	0	0
99	134.0000001	-18.44827491	335	-100.5	1.022773837	100	1	670	134	0	0	0	0	0	0	0	0	0	0	0
83	209.0000001	13.22502294	522.5	-156.75	1.01190068	100	1	1045	209	0	0	0	0	0	0	0	0	0	0	0
83	209.0000001	13.22502294	522.5	-156.75	1.01190068	100	1	1045	209	0	0	0	0	0	0	0	0	0	0	0
51	210.0000001	-41.52177123	525	-157.5	1.011083087	100	1	1050	210	0	0	0	0	0	0	0	0	0	0	0
51	210.0000001	-41.52177123	525	-157.5	1.011083087	100	1	1050	210	0	0	0	0	0	0	0	0	0	0	0
54	800.0000001	0	0	0	0.99650662	100	1	1080	800	0	0	0	0	0	0	0	0	0	0	0
54	800.0000001	0	0	0	0.99650662	100	1	1080	800	0	0	0	0	0	0	0	0	0	0	0
3	28.10090035	0	0	0	1.013898763	100	1	50	0	0	0	0	0	0	0	0	0	0	0	0
5	0.205646033	0	0	0	1.008980776	100	1	0.41244	0	0	0	0	0	0	0	0	0	0	0	0
7	29.13625512	0	0	0	1.008502436	100	1	50	0	0	0	0	0	0	0	0	0	0	0	0
8	10.42582155	0	0	0	1.016051205	100	1	20	0	0	0	0	0	0	0	0	0	0	0	0
8	34.02823012	0	0	0	1.016051205	100	1	60	0	0	0	0	0	0	0	0	0	0	0	0
8	10.42582155	0	0	0	1.016051205	100	1	20	0	0	0	0	0	0	0	0	0	0	0	0
10	23.10854546	0	0	0	1.002540941	100	1	80	0	0	0	0	0	0	0	0	0	0	0	0
10	14.96914836	0	0	0	1.002540941	100	1	40	0	0	0	0	0	0	0	0	0	0	0	0
11	23.44182738	0	0	0	0.99945336	100	1	100	0	0	0	0	0	0	0	0	0	0	0	0
11	16.99402418	0	0	0	0.99945336	100	1	50	0	0	0	0	0	0	0	0	0	0	0	0
18	24.65103699	0	0	0	1.002403813	100	1	50	0	0	0	0	0	0	0	0	0	0	0	0
21	9.518061711	0	0	0	1.010067764	100	1	20	0	0	0	0	0	0	0	0	0	0	0	0
34	8.986858085	0	0	0	1.003067622	100	1	20	0	0	0	0	0	0	0	0	0	0	0	0
45	25.30996074	0	0	0	1.011303451	100	1	40	0	0	0	0	0	0	0	0	0	0	0	0
45	0.127509788	0	0	0	1.011303451	100	1	0.277	0	0	0	0	0	0	0	0	0	0	0	0
45	11.42292094	0	0	0	1.011303451	100	1	20	0	0	0	0	0	0	0	0	0	0	0	0
46	11.84569375	0	0	0	1.003554298	100	1	20	0	0	0	0	0	0	0	0	0	0	0	0
46	11.84569375	0	0	0	1.003554298	100	1	20	0	0	0	0	0	0	0	0	0	0	0	0
46	80.91548177	0	0	0	1.003554298	100	1	100	0	0	0	0	0	0	0	0	0	0	0	0
46	38.62640868	0	0	0	1.003554298	100	1	55	0	0	0	0	0	0	0	0	0	0	0	0
46	18.80526485	0	0	0	1.003554298	100	1	30	0	0	0	0	0	0	0	0	0	0	0	0
46	34.41979753	0	0	0	1.003554298	100	1	50	0	0	0	0	0	0	0	0	0	0	0	0
46	8.614465134	0	0	0	1.003554298	100	1	15	0	0	0	0	0	0	0	0	0	0	0	0
47	36.95117531	0	0	0	1.011411579	100	1	60	0	0	0	0	0	0	0	0	0	0	0	0
48	34.34501692	0	0	0	1.011647466	100	1	55	0	0	0	0	0	0	0	0	0	0	0	0
49	47.3187208	0	0	0	1.024440337	100	1	80	0	0	0	0	0	0	0	0	0	0	0	0
50	108.8938672	0	0	0	1.018798335	100	1	150	0	0	0	0	0	0	0	0	0	0	0	0
50	10.66500433	0	0	0	1.018798335	100	1	19.8	0	0	0	0	0	0	0	0	0	0	0	0
51	11.0156083	0	0	0	1.011083087	100	1	20	0	0	0	0	0	0	0	0	0	0	0	0
51	176.1145187	0	0	0	1.011083087	100	1	200	0	0	0	0	0	0	0	0	0	0	0	0
51	38.09989973	0	0	0	1.011083087	100	1	60	0	0	0	0	0	0	0	0	0	0	0	0
56	11.83739814	0	0	0	0.999731765	100	1	60	0	0	0	0	0	0	0	0	0	0	0	0
57	9.285544632	0	0	0	0.996415508	100	1	500	0	0	0	0	0	0	0	0	0	0	0	0
57	8.112890259	0	0	0	0.996415508	100	1	40	0	0	0	0	0	0	0	0	0	0	0	0
57	5.905194544	0	0	0	0.996415508	100	1	20	0	0	0	0	0	0	0	0	0	0	0	0
60	175.5990518	0	0	0	0.957709899	100	1	180	0	0	0	0	0	0	0	0	0	0	0	0
63	24.96532986	0	0	0	0.992163824	100	1	35	0	0	0	0	0	0	0	0	0	0	0	0
63	29.3430957	0	0	0	0.992163824	100	1	40	0	0	0	0	0	0	0	0	0	0	0	0
64	31.93862898	0	0	0	0.969541732	100	1	40	0	0	0	0	0	0	0	0	0	0	0	0
68	16.02490617	0	0	0	0.995672382	100	1	30	0	0	0	0	0	0	0	0	0	0	0	0
68	5.099860797	0	0	0	0.995672382	100	1	10	0	0	0	0	0	0	0	0	0	0	0	0
69	9.228798902	0	0	0	1.014813433	100	1	18	0	0	0	0	0	0	0	0	0	0	0	0
69	10.27814331	0	0	0	1.014813433	100	1	20	0	0	0	0	0	0	0	0	0	0	0	0
71	10.65845473	0	0	0	1.000577488	100	1	20	0	0	0	0	0	0	0	0	0	0	0	0
74	28.25222811	0	0	0	1.021883498	100	1	60	0	0	0	0	0	0	0	0	0	0	0	0
76	10.04725297	0	0	0	1.035230887	100	1	20	0	0	0	0	0	0	0	0	0	0	0	0
78	10.01108944	0	0	0	1.020799001	100	1	20	0	0	0	0	0	0	0	0	0	0	0	0
79	23.93989951	0	0	0	0.999126673	100	1	50	0	0	0	0	0	0	0	0	0	0	0	0
82	4.125054261	0	0	0	1.004018524	100	1	8.554	0	0	0	0	0	0	0	0	0	0	0	0
97	42.64603334	0	0	0	1.000129058	100	1	80	0	0	0	0	0	0	0	0	0	0	0	0
98	15.38935356	0	0	0	1.0037988	100	1	30	0	0	0	0	0	0	0	0	0	0	0	0
101	73.48814424	0	0	0	1.0189795	100	1	120	0	0	0	0	0	0	0	0	0	0	0	0
101	27.52851124	0	0	0	1.0189795	100	1	50	0	0	0	0	0	0	0	0	0	0	0	0
101	59.36694799	0	0	0	1.0189795	100	1	100	0	0	0	0	0	0	0	0	0	0	0	0
102	7.742622603	0	0	0	1.018640102	100	1	15	0	0	0	0	0	0	0	0	0	0	0	0
103	2.534446028	0	0	0	1.026266241	100	1	5	0	0	0	0	0	0	0	0	0	0	0	0
104	33.05975983	0	0	0	1.026937207	100	1	60	0	0	0	0	0	0	0	0	0	0	0	0
5	36.82510961	0	0	0	1.008980776	100	1	60	0	0	0	0	0	0	0	0	0	0	0	0
7	29.13625512	0	0	0	1.008502436	100	1	50	0	0	0	0	0	0	0	0	0	0	0	0
9	24.60615684	0	0	0	1.01235656	100	1	70.04	0	0	0	0	0	0	0	0	0	0	0	0
9	28.4463429	0	0	0	1.01235656	100	1	88.9	0	0	0	0	0	0	0	0	0	0	0	0
9	22.17197345	0	0	0	1.01235656	100	1	60	0	0	0	0	0	0	0	0	0	0	0	0
11	23.4640832	0	0	0	0.99945336	100	1	100.4	0	0	0	0	0	0	0	0	0	0	0	0
11	14.42910899	0	0	0	0.99945336	100	1	39.3773	0	0	0	0	0	0	0	0	0	0	0	0
11	23.10202133	0	0	0	0.99945336	100	1	200	0	0	0	0	0	0	0	0	0	0	0	0
12	3.598892224	0	0	0	1.009304006	100	1	95.5	0	0	0	0	0	0	0	0	0	0	0	0
20	36.6523175	0	0	0	1.009924367	100	1	96.4	0	0	0	0	0	0	0	0	0	0	0	0
21	19.57713516	0	0	0	1.010067764	100	1	44	0	0	0	0	0	0	0	0	0	0	0	0
21	16.35912203	0	0	0	1.010067764	100	1	36	0	0	0	0	0	0	0	0	0	0	0	0
21	9.67394039	0	0	0	1.010067764	100	1	20.3503	0	0	0	0	0	0	0	0	0	0	0	0
21	38.58821502	0	0	0	1.010067764	100	1	100	0	0	0	0	0	0	0	0	0	0	0	0
22	19.07939744	0	0	0	1.011564218	100	1	49.1	0	0	0	0	0	0	0	0	0	0	0	0
22	19.07939744	0	0	0	1.011564218	100	1	49.1	0	0	0	0	0	0	0	0	0	0	0	0
27	20.44063088	0	0	0	0.999085453	100	1	50	0	0	0	0	0	0	0	0	0	0	0	0
27	24.00220371	0	0	0	0.999085453	100	1	60	0	0	0	0	0	0	0	0	0	0	0	0
27	20.44063088	0	0	0	0.999085453	100	1	50	0	0	0	0	0	0	0	0	0	0	0	0
28	16.42918291	0	0	0	1.01052197	100	1	49.5	0	0	0	0	0	0	0	0	0	0	0	0
28	16.54414892	0	0	0	1.01052197	100	1	50	0	0	0	0	0	0	0	0	0	0	0	0
28	16.42918291	0	0	0	1.01052197	100	1	49.5	0	0	0	0	0	0	0	0	0	0	0	0
28	16.54414892	0	0	0	1.01052197	100	1	50	0	0	0	0	0	0	0	0	0	0	0	0
28	18.69246921	0	0	0	1.01052197	100	1	60	0	0	0	0	0	0	0	0	0	0	0	0
28	29.84357382	0	0	0	1.01052197	100	1	160	0	0	0	0	0	0	0	0	0	0	0	0
29	26.67870573	0	0	0	1.005420285	100	1	99	0	0	0	0	0	0	0	0	0	0	0	0
29	34.62469825	0	0	0	1.005420285	100	1	200	0	0	0	0	0	0	0	0	0	0	0	0
29	17.57462938	0	0	0	1.005420285	100	1	50	0	0	0	0	0	0	0	0	0	0	0	0
29	29.53146204	0	0	0	1.005420285	100	1	123.4004	0	0	0	0	0	0	0	0	0	0	0	0
29	34.62469825	0	0	0	1.005420285	100	1	200	0	0	0	0	0	0	0	0	0	0	0	0
29	26.81289548	0	0	0	1.005420285	100	1	100	0	0	0	0	0	0	0	0	0	0	0	0
30	33.4422159	0	0	0	1.011763808	100	1	100	0	0	0	0	0	0	0	0	0	0	0	0
31	29.38385133	0	0	0	1.006716708	100	1	110	0	0	0	0	0	0	0	0	0	0	0	0
31	17.82466804	0	0	0	1.006716708	100	1	49.5	0	0	0	0	0	0	0	0	0	0	0	0
31	20.45013674	0	0	0	1.006716708	100	1	60	0	0	0	0	0	0	0	0	0	0	0	0
32	18.34541837	0	0	0	1.011887104	100	1	49.5	0	0	0	0	0	0	0	0	0	0	0	0
33	22.50542037	0	0	0	1.012839569	100	1	80.5	0	0	0	0	0	0	0	0	0	0	0	0
33	29.54711607	0	0	0	1.012839569	100	1	150	0	0	0	0	0	0	0	0	0	0	0	0
33	25.00060145	0	0	0	1.012839569	100	1	99	0	0	0	0	0	0	0	0	0	0	0	0
34	20.79043685	0	0	0	1.003067622	100	1	50	0	0	0	0	0	0	0	0	0	0	0	0
35	19.17185764	0	0	0	1.007867773	100	1	49.5	0	0	0	0	0	0	0	0	0	0	0	0
35	19.17185764	0	0	0	1.007867773	100	1	49.5	0	0	0	0	0	0	0	0	0	0	0	0
35	19.01782037	0	0	0	1.007867773	100	1	49	0	0	0	0	0	0	0	0	0	0	0	0
35	19.17185764	0	0	0	1.007867773	100	1	49.5	0	0	0	0	0	0	0	0	0	0	0	0
35	31.07198006	0	0	0	1.007867773	100	1	97.5	0	0	0	0	0	0	0	0	0	0	0	0
39	25.60122675	0	0	0	1.004633783	100	1	50	0	0	0	0	0	0	0	0	0	0	0	0
39	3.951580035	0	0	0	1.004633783	100	1	8.0402	0	0	0	0	0	0	0	0	0	0	0	0
39	25.60122675	0	0	0	1.004633783	100	1	50	0	0	0	0	0	0	0	0	0	0	0	0
42	28.85485705	0	0	0	0.989977082	100	1	48	0	0	0	0	0	0	0	0	0	0	0	0
46	80.91548177	0	0	0	1.003554298	100	1	100	0	0	0	0	0	0	0	0	0	0	0	0
46	4.478510271	0	0	0	1.003554298	100	1	8.1488	0	0	0	0	0	0	0	0	0	0	0	0
46	34.41979753	0	0	0	1.003554298	100	1	50	0	0	0	0	0	0	0	0	0	0	0	0
48	1.392789531	0	0	0	1.011647466	100	1	2.7163	0	0	0	0	0	0	0	0	0	0	0	0
48	30.69233535	0	0	0	1.011647466	100	1	50	0	0	0	0	0	0	0	0	0	0	0	0
51	77.55277493	0	0	0	1.011083087	100	1	106.5	0	0	0	0	0	0	0	0	0	0	0	0
51	30.70146164	0	0	0	1.011083087	100	1	50	0	0	0	0	0	0	0	0	0	0	0	0
53	3.03679011	0	0	0	1.004059803	100	1	100	0	0	0	0	0	0	0	0	0	0	0	0
53	2.387479451	0	0	0	1.004059803	100	1	15.116	0	0	0	0	0	0	0	0	0	0	0	0
53	3.03679011	0	0	0	1.004059803	100	1	100	0	0	0	0	0	0	0	0	0	0	0	0
54	1.943942479	0	0	0	0.99650662	100	1	100	0	0	0	0	0	0	0	0	0	0	0	0
54	1.736165675	0	0	0	0.99650662	100	1	15.116	0	0	0	0	0	0	0	0	0	0	0	0
54	1.943942479	0	0	0	0.99650662	100	1	100	0	0	0	0	0	0	0	0	0	0	0	0
55	25.54918742	0	0	0	1.005147869	100	1	60	0	0	0	0	0	0	0	0	0	0	0	0
56	12.46976197	0	0	0	0.999731765	100	1	80	0	0	0	0	0	0	0	0	0	0	0	0
56	7.003621104	0	0	0	0.999731765	100	1	20.7496	0	0	0	0	0	0	0	0	0	0	0	0
56	12.46976197	0	0	0	0.999731765	100	1	80	0	0	0	0	0	0	0	0	0	0	0	0
57	8.677935916	0	0	0	0.996415508	100	1	51	0	0	0	0	0	0	0	0	0	0	0	0
57	8.638631796	0	0	0	0.996415508	100	1	50	0	0	0	0	0	0	0	0	0	0	0	0
58	29.89343534	0	0	0	1.000227852	100	1	60.95	0	0	0	0	0	0	0	0	0	0	0	0
62	32.32877107	0	0	0	0.986511651	100	1	49.5	0	0	0	0	0	0	0	0	0	0	0	0
62	66.33277993	0	0	0	0.986511651	100	1	90	0	0	0	0	0	0	0	0	0	0	0	0
62	57.5484103	0	0	0	0.986511651	100	1	80	0	0	0	0	0	0	0	0	0	0	0	0
62	62.79486806	0	0	0	0.986511651	100	1	86	0	0	0	0	0	0	0	0	0	0	0	0
64	86.09142372	0	0	0	0.969541732	100	1	92.4	0	0	0	0	0	0	0	0	0	0	0	0
64	93.50645574	0	0	0	0.969541732	100	1	99.6	0	0	0	0	0	0	0	0	0	0	0	0
64	50.50760088	0	0	0	0.969541732	100	1	58.3402	0	0	0	0	0	0	0	0	0	0	0	0
64	93.9161302	0	0	0	0.969541732	100	1	100	0	0	0	0	0	0	0	0	0	0	0	0
64	41.92590867	0	0	0	0.969541732	100	1	50	0	0	0	0	0	0	0	0	0	0	0	0
64	90.63181802	0	0	0	0.969541732	100	1	96.8	0	0	0	0	0	0	0	0	0	0	0	0
65	10.67299421	0	0	0	0.987761218	100	1	48.7	0	0	0	0	0	0	0	0	0	0	0	0
65	10.34793748	0	0	0	0.987761218	100	1	130	0	0	0	0	0	0	0	0	0	0	0	0
66	26.78289865	0	0	0	0.996549675	100	1	46.2	0	0	0	0	0	0	0	0	0	0	0	0
66	23.86991792	0	0	0	0.996549675	100	1	41.8	0	0	0	0	0	0	0	0	0	0	0	0
66	21.01961427	0	0	0	0.996549675	100	1	37.4	0	0	0	0	0	0	0	0	0	0	0	0
66	13.65048259	0	0	0	0.996549675	100	1	25.5	0	0	0	0	0	0	0	0	0	0	0	0
68	27.76368346	0	0	0	0.995672382	100	1	50	0	0	0	0	0	0	0	0	0	0	0	0
69	5.554595516	0	0	0	1.014813433	100	1	10.9194	0	0	0	0	0	0	0	0	0	0	0	0
69	57.23180396	0	0	0	1.014813433	100	1	100	0	0	0	0	0	0	0	0	0	0	0	0
73	24.50685973	0	0	0	1.00952079	100	1	51	0	0	0	0	0	0	0	0	0	0	0	0
79	19.16562777	0	0	0	0.999126673	100	1	40	0	0	0	0	0	0	0	0	0	0	0	0
82	22.1399554	0	0	0	1.004018524	100	1	49.6	0	0	0	0	0	0	0	0	0	0	0	0
...


];

%% branch data
%	fbus	tbus	r	x	b	rateA	rateB	rateC	ratio	angle	status	angmin	angmax
mpc.branch = [
1	2	0.001231481	0.009328471	0.020554334	444	444	444	0	0	1	-360	360
1	4	0.002193654	0.016616931	0.036613714	383	383	383	0	0	1	-360	360
1	5	0.000934455	0.007078498	0.015596748	444	444	444	0	0	1	-360	360
1	7	0.002971725	0.022510817	0.04960029	581	581	581	0	0	1	-360	360
2	5	0.001001947	0.007589746	0.016723232	444	444	444	0	0	1	-360	360
2	6	0.000288417	0.002184759	0.004813893	444	444	444	0	0	1	-360	360
2	11	0.004742451	0.035924067	0.079155019	581	581	581	0	0	1	-360	360
3	4	0.002246889	0.017020181	0.037502233	444	444	444	0	0	1	-360	360
3	5	0.00148706	0.011264482	0.024820138	581	581	581	0	0	1	-360	360
3	102	0.003476606	0.026335287	0.058027119	581	581	581	0	0	1	-360	360
4	8	0.00238533	0.018068876	0.039812925	444	444	444	0	0	1	-360	360
6	52	0.0070995	0.053778711	0.118495906	581	581	581	0	0	1	-360	360
7	8	0.003957155	0.029975451	0.06604785	444	444	444	0	0	1	-360	360
9	10	0.004442846	0.033654557	0.074154384	581	581	581	0	0	1	-360	360
9	93	0.002105632	0.015950161	0.035144553	444	444	444	0	0	1	-360	360
10	11	0.002563718	0.019420167	0.042790358	444	444	444	0	0	1	-360	360
10	90	0.003841442	0.029098924	0.064116511	444	444	444	0	0	1	-360	360
11	57	0.005469686	0.041432869	0.091293101	581	581	581	0	0	1	-360	360
12	53	0.00240284	0.018201515	0.040105182	444	444	444	0	0	1	-360	360
12	53	0.00240284	0.018201515	0.040105182	444	444	444	0	0	1	-360	360
12	53	0.00240284	0.018201515	0.040105182	444	444	444	0	0	1	-360	360
12	54	0.00454816	0.034452309	0.07591215	581	581	581	0	0	1	-360	360
12	56	0.004796695	0.036334968	0.080060395	383	383	383	0	0	1	-360	360
12	57	0.004437107	0.033611087	0.074058602	444	444	444	0	0	1	-360	360
12	65	0.0052847	0.040031601	0.08820555	581	581	581	0	0	1	-360	360
13	14	0.000489044	0.003704511	0.008162512	383	383	383	0	0	1	-360	360
13	15	0.000433758	0.003285714	0.007239735	444	444	444	0	0	1	-360	360
13	15	0.000433758	0.003285714	0.007239735	444	444	444	0	0	1	-360	360
13	16	0.0008459	0.006407693	0.014118698	581	581	581	0	0	1	-360	360
13	16	0.0008459	0.006407693	0.014118698	581	581	581	0	0	1	-360	360
13	19	0.002830922	0.021444237	0.047250189	383	383	383	0	0	1	-360	360
14	15	0.000534973	0.004052421	0.008929097	444	444	444	0	0	1	-360	360
14	17	0.002621809	0.019860207	0.04375994	581	581	581	0	0	1	-360	360
14	19	0.00286427	0.021696844	0.047806784	383	383	383	0	0	1	-360	360
14	97	0.003839281	0.029082553	0.064080439	444	444	444	0	0	1	-360	360
15	16	0.001014322	0.007683486	0.016929778	581	581	581	0	0	1	-360	360
15	17	0.002756899	0.02088351	0.046014685	383	383	383	0	0	1	-360	360
18	21	0.003955073	0.029959676	0.066013091	581	581	581	0	0	1	-360	360
18	85	0.00542017	0.041057788	0.090466649	581	581	581	0	0	1	-360	360
18	85	0.00542017	0.041057788	0.090466649	581	581	581	0	0	1	-360	360
20	21	0.001050239	0.007955561	0.017529267	581	581	581	0	0	1	-360	360
20	22	0.00632004	0.047874307	0.105486153	383	383	383	0	0	1	-360	360
20	25	0.006334272	0.047982108	0.105723683	444	444	444	0	0	1	-360	360
22	32	0.003314828	0.025109819	0.055326926	383	383	383	0	0	1	-360	360
23	24	0.001582038	0.011983937	0.026405383	581	581	581	0	0	1	-360	360
23	27	0.001210145	0.009166848	0.020198214	444	444	444	0	0	1	-360	360
24	26	0.003421945	0.025921237	0.057114802	444	444	444	0	0	1	-360	360
25	30	0.001999924	0.015149426	0.033380215	383	383	383	0	0	1	-360	360
26	34	0.001827543	0.013843635	0.030503038	581	581	581	0	0	1	-360	360
27	29	0.00353767	0.026797847	0.059046324	444	444	444	0	0	1	-360	360
27	32	0.004560372	0.034544819	0.076115986	581	581	581	0	0	1	-360	360
28	29	0.005185322	0.039278816	0.086546866	383	383	383	0	0	1	-360	360
28	33	0.002109657	0.015980655	0.035211744	581	581	581	0	0	1	-360	360
29	31	0.004209594	0.031887677	0.070261245	444	444	444	0	0	1	-360	360
30	36	0.005706588	0.043227401	0.095247169	581	581	581	0	0	1	-360	360
31	35	0.006657368	0.050429562	0.111116396	383	383	383	0	0	1	-360	360
32	33	0.00573111	0.04341316	0.095656471	444	444	444	0	0	1	-360	360
34	35	0.002551719	0.019329273	0.042590081	581	581	581	0	0	1	-360	360
34	36	0.002263427	0.017145457	0.037778266	383	383	383	0	0	1	-360	360
35	83	0.003924491	0.02972802	0.065502661	383	383	383	0	0	1	-360	360
37	38	0.000459771	0.003482767	0.007673923	383	383	383	0	0	1	-360	360
37	39	0.004154434	0.031469836	0.069340575	444	444	444	0	0	1	-360	360
38	39	0.004212769	0.031911728	0.070314238	383	383	383	0	0	1	-360	360
38	42	0.005747231	0.043535274	0.095925537	581	581	581	0	0	1	-360	360
40	58	0.004623631	0.035024003	0.077171818	581	581	581	0	0	1	-360	360
41	81	0.002467295	0.01868976	0.041180981	581	581	581	0	0	1	-360	360
41	99	0.002903631	0.021995005	0.04846375	383	383	383	0	0	1	-360	360
42	62	0.003681902	0.027890404	0.061453662	581	581	581	0	0	1	-360	360
43	45	0.002623659	0.019874217	0.043790811	383	383	383	0	0	1	-360	360
43	46	0.00190795	0.01445272	0.031845094	444	444	444	0	0	1	-360	360
43	46	0.00190795	0.01445272	0.031845094	444	444	444	0	0	1	-360	360
44	45	0.000776324	0.005880652	0.012957416	383	383	383	0	0	1	-360	360
44	46	0.001384768	0.010489619	0.023112807	444	444	444	0	0	1	-360	360
47	48	0.001381091	0.010461763	0.023051428	383	383	383	0	0	1	-360	360
47	50	0.003599601	0.027266977	0.060080004	444	444	444	0	0	1	-360	360
48	51	0.001500481	0.01136614	0.02504413	581	581	581	0	0	1	-360	360
48	51	0.001500481	0.01136614	0.02504413	581	581	581	0	0	1	-360	360
49	50	0.005514458	0.041772017	0.09204038	383	383	383	0	0	1	-360	360
49	102	0.004589452	0.034765099	0.076601349	444	444	444	0	0	1	-360	360
49	103	0.007661131	0.05803307	0.127869951	581	581	581	0	0	1	-360	360
49	103	0.007661131	0.05803307	0.127869951	581	581	581	0	0	1	-360	360
51	52	0.001375013	0.010415726	0.022949989	383	383	383	0	0	1	-360	360
51	52	0.001375013	0.010415726	0.022949989	383	383	383	0	0	1	-360	360
53	54	0.002677065	0.020278767	0.044682195	581	581	581	0	0	1	-360	360
54	64	0.003571759	0.027056073	0.059615299	383	383	383	0	0	1	-360	360
54	64	0.003571759	0.027056073	0.059615299	383	383	383	0	0	1	-360	360
55	56	0.001476581	0.011185101	0.02464523	581	581	581	0	0	1	-360	360
55	59	0.00354571	0.026858753	0.059180524	581	581	581	0	0	1	-360	360
56	57	0.001380577	0.010457868	0.023042845	383	383	383	0	0	1	-360	360
58	59	0.002954485	0.022380224	0.049312541	581	581	581	0	0	1	-360	360
59	99	0.006862996	0.051987197	0.114548486	581	581	581	0	0	1	-360	360
60	61	0.000847383	0.006418925	0.014143447	383	383	383	0	0	1	-360	360
60	61	0.000847383	0.006418925	0.014143447	383	383	383	0	0	1	-360	360
60	63	0.001472794	0.011156411	0.024582014	581	581	581	0	0	1	-360	360
61	64	0.003018189	0.02286278	0.050375805	581	581	581	0	0	1	-360	360
62	63	0.004934609	0.037379662	0.082362274	581	581	581	0	0	1	-360	360
62	66	0.003136702	0.023760521	0.052353885	383	383	383	0	0	1	-360	360
65	66	0.002736511	0.02072907	0.045674391	383	383	383	0	0	1	-360	360
67	68	0.002715214	0.020567745	0.045318929	444	444	444	0	0	1	-360	360
67	68	0.002715214	0.020567745	0.045318929	444	444	444	0	0	1	-360	360
67	71	0.008051157	0.060987512	0.134379763	383	383	383	0	0	1	-360	360
67	72	0.004449945	0.033708335	0.074272878	444	444	444	0	0	1	-360	360
68	69	0.002186137	0.016559988	0.036488245	581	581	581	0	0	1	-360	360
68	70	0.004613677	0.034948601	0.077005679	383	383	383	0	0	1	-360	360
69	78	0.004758166	0.036043106	0.079417308	383	383	383	0	0	1	-360	360
70	77	0.001586769	0.012019773	0.026484344	581	581	581	0	0	1	-360	360
71	77	0.00605571	0.045872007	0.101074289	383	383	383	0	0	1	-360	360
72	74	0.002817945	0.021345932	0.047033584	383	383	383	0	0	1	-360	360
73	87	0.004613547	0.034947616	0.077003508	444	444	444	0	0	1	-360	360
73	88	0.004531682	0.03432749	0.075637123	383	383	383	0	0	1	-360	360
74	75	0.009670488	0.073253948	0.161407603	581	581	581	0	0	1	-360	360
74	76	0.007872735	0.059635965	0.131401767	383	383	383	0	0	1	-360	360
75	76	0.004327066	0.032777525	0.072221934	444	444	444	0	0	1	-360	360
78	106	0.004527244	0.034293877	0.07556306	383	383	383	0	0	1	-360	360
79	80	0.000977984	0.007408232	0.016323283	444	444	444	0	0	1	-360	360
79	82	0.002364022	0.017907464	0.039457271	444	444	444	0	0	1	-360	360
80	82	0.001765384	0.013372781	0.02946556	444	444	444	0	0	1	-360	360
80	83	0.003267475	0.024751124	0.054536578	581	581	581	0	0	1	-360	360
82	83	0.002573106	0.019491276	0.042947039	444	444	444	0	0	1	-360	360
84	86	0.005172374	0.039180731	0.086330745	383	383	383	0	0	1	-360	360
84	91	0.001915128	0.014507096	0.031964906	581	581	581	0	0	1	-360	360
85	91	0.004211896	0.031905116	0.070299669	444	444	444	0	0	1	-360	360
86	87	0.004229059	0.032035119	0.070586117	383	383	383	0	0	1	-360	360
88	89	0.002783259	0.021083189	0.046454658	383	383	383	0	0	1	-360	360
89	92	0.003522734	0.02668471	0.058797036	581	581	581	0	0	1	-360	360
90	96	0.003043246	0.023052592	0.050794035	444	444	444	0	0	1	-360	360
90	100	0.000459483	0.003480585	0.007669114	383	383	383	0	0	1	-360	360
92	94	0.002289817	0.017345363	0.038218739	444	444	444	0	0	1	-360	360
93	94	0.005138106	0.038921154	0.085758794	581	581	581	0	0	1	-360	360
95	98	0.003984031	0.030179033	0.066496423	444	444	444	0	0	1	-360	360
96	100	0.002774327	0.021015528	0.046305573	581	581	581	0	0	1	-360	360
97	98	0.003508236	0.026574885	0.058555049	581	581	581	0	0	1	-360	360
101	102	0.004460424	0.033787715	0.074447784	444	444	444	0	0	1	-360	360
101	105	0.004063987	0.030784701	0.06783095	444	444	444	0	0	1	-360	360
103	104	0.002684292	0.020333513	0.044802822	444	444	444	0	0	1	-360	360
103	107	0.002678909	0.020292733	0.044712967	383	383	383	0	0	1	-360	360
104	107	0.002396109	0.018150525	0.039992831	383	383	383	0	0	1	-360	360
105	106	0.003399166	0.025748683	0.056734597	444	444	444	0	0	1	-360	360
5	6	0.00085241	0.006457005	0.014227352	581	581	581	0	0	1	-360	360
72	89	0.006934841	0.052531423	0.115747632	383	383	383	0	0	1	-360	360
13	18	0.002946282	0.022318088	0.049175631	581	581	581	0	0	1	-360	360
15	95	0.006648317	0.050361001	0.110965331	383	383	383	0	0	1	-360	360
40	39	0.007022227	0.053193366	0.117206158	383	383	383	0	0	1	-360	360
46	64	0.008630674	0.065377354	0.144052333	444	444	444	0	0	1	-360	360
56	66	0.005772111	0.043723743	0.096340809	581	581	581	0	0	1	-360	360
80	81	0.006330641	0.047954608	0.105663089	444	444	444	0	0	1	-360	360
76	78	0.001991626	0.03210544	1.93857	2182.6	2182.6	2182.6	0	0	1	-360	360
78	95	0.001226173	0.01976618	1.19350875	2639	2639	2639	0	0	1	-360	360
87	78	0.001466196	0.0236354	1.4271375	1673	1673	1673	0	0	1	-360	360
87	16	0.001793034	0.0289041	1.74526875	2182.6	2182.6	2182.6	0	0	1	-360	360
94	78	0.000605291	0.00975742	0.58916625	1673	1673	1673	0	0	1	-360	360
94	16	0.0014274	0.02301	1.389375	1745.8	1745.8	1745.8	0	0	1	-360	360
99	95	0.001526659	0.02461008	1.48599	2639	2639	2639	0	0	1	-360	360
95	55	0.000611074	0.00985064	0.594795	1745.8	1745.8	1745.8	0	0	1	-360	360
55	66	0.000419143	0.00675668	0.4079775	1673	1673	1673	0	0	1	-360	360
85	19	0.000844801	0.01361838	0.82229625	2639	2639	2639	0	0	1	-360	360
19	80	0.001304058	0.0210217	1.26931875	2182.6	2182.6	2182.6	0	0	1	-360	360
16	19	0.000274646	0.00442736	0.26733	1915.2	1915.2	1915.2	0	0	1	-360	360
16	95	0.000674245	0.01086898	0.65628375	1673	1673	1673	0	0	1	-360	360
69	8	0.000743419	0.01198408	0.723615	1915.2	1915.2	1915.2	0	0	1	-360	360
3	2	0.000220039	0.00354708	0.2141775	2182.6	2182.6	2182.6	0	0	1	-360	360
3	66	0.001487351	0.02397642	1.44772875	2639	2639	2639	0	0	1	-360	360
3	48	0.00075967	0.01224604	0.7394325	1915.2	1915.2	1915.2	0	0	1	-360	360
3	105	0.000943036	0.01520194	0.91791375	1654	1654	1654	0	0	1	-360	360
48	51	0.000132931	0.00214288	0.12939	1915.2	1915.2	1915.2	0	0	1	-360	360
3	78	0.000673367	0.01085482	0.65542875	1789	1789	1789	0	0	1	-360	360
27	25	0.000545779	0.00879808	0.53124	1915.2	1915.2	1915.2	0	0	1	-360	360
25	19	0.00062059	0.01000404	0.6040575	2639	2639	2639	0	0	1	-360	360
17	16	0.000333792	0.0053808	0.3249	1435	1435	1435	0	0	1	-360	360
17	95	0.000358021	0.00577138	0.34848375	1631	1631	1631	0	0	1	-360	360
87	86	0.000374564	0.00603806	0.36458625	1455	1455	1455	0	0	1	-360	360
86	85	0.000871739	0.01405262	0.84851625	1745.8	1745.8	1745.8	0	0	1	-360	360
44	63	0.00095892	0.015458	0.933375	1673	1673	1673	0	0	1	-360	360
44	51	0.000675636	0.0108914	0.6576375	1654	1654	1654	0	0	1	-360	360
63	66	0.000254077	0.00409578	0.24730875	2283	2283	2283	0	0	1	-360	360
63	51	0.001320235	0.02128248	1.285065	1435	1435	1435	0	0	1	-360	360
95	59	0.000694741	0.01119938	0.67623375	2639	2639	2639	0	0	1	-360	360
59	39	0.001163734	0.01875964	1.1327325	1915.2	1915.2	1915.2	0	0	1	-360	360
77	105	0.000418997	0.00675432	0.407835	1915.2	1915.2	1915.2	0	0	1	-360	360
3	4	0.000199031	0.00320842	0.19372875	1673	1673	1673	0	0	1	-360	360
4	78	0.000499297	0.00804878	0.48599625	1673	1673	1673	0	0	1	-360	360
47	48	0.000122317	0.00197178	0.11905875	2146	2146	2146	0	0	1	-360	360
47	2	0.0009404	0.01515946	0.91534875	1325	1325	1325	0	0	1	-360	360




];

%%-----  OPF Data  -----%%
%% generator cost data
%	1	startup	shutdown	n	x1	y1	...	xn	yn
%	2	startup	shutdown	n	c(n-1)	...	c0
mpc.gencost = [
2	150000	150000	3	0.025641	273.71794	10830.76
2	150000	150000	3	0.025641	273.71794	10830.76
2	150000	150000	3	0.025641	273.71794	10830.76
2	150000	150000	3	0.025641	273.71794	10830.76
2	150000	150000	3	0.025641	273.71794	10830.76
2	150000	150000	3	0.025641	273.71794	10830.76
2	150000	150000	3	0.025641	273.71794	10830.76
2	150000	150000	3	0.025641	273.71794	10830.76
2	150000	150000	3	0.025641	273.71794	10830.76
2	150000	150000	3	0.025641	273.71794	10830.76
2	150000	150000	3	0.025641	273.71794	10830.76
2	150000	150000	3	0.025641	273.71794	10830.76
2	150000	150000	3	0.025641	273.71794	10830.76
2	150000	150000	3	0.025641	273.71794	10830.76
2	150000	150000	3	0.025641	273.71794	10830.76
2	150000	150000	3	0.025641	273.71794	10830.76
2	150000	150000	3	0.025641	273.71794	10830.76
2	300000	300000	3	0.013333	262.66666	22000
2	300000	300000	3	0.013333	262.66666	22000
2	300000	300000	3	0.013333	262.66666	22000
2	300000	300000	3	0.013333	262.66666	22000
2	300000	300000	3	0.013333	262.66666	22000
2	300000	300000	3	0.013333	262.66666	22000
2	300000	300000	3	0.013333	262.66666	22000
2	300000	300000	3	0.013333	262.66666	22000
2	300000	300000	3	0.013333	262.66666	22000
2	300000	300000	3	0.013333	262.66666	22000
2	300000	300000	3	0.013333	262.66666	22000
2	300000	300000	3	0.013333	262.66666	22000
2	300000	300000	3	0.013333	262.66666	22000
2	300000	300000	3	0.013333	262.66666	22000
2	300000	300000	3	0.013333	262.66666	22000
2	300000	300000	3	0.013333	262.66666	22000
2	300000	300000	3	0.013333	262.66666	22000
2	300000	300000	3	0.013333	262.66666	22000
2	600000	600000	3	0.032653	240.18367	15355.1
2	600000	600000	3	0.032653	240.18367	15355.1
2	600000	600000	3	0.032653	240.18367	15355.1
2	600000	600000	3	0.032653	240.18367	15355.1
2	600000	600000	3	0.032653	240.18367	15355.1
2	600000	600000	3	0.032653	240.18367	15355.1
2	600000	600000	3	0.032653	240.18367	15355.1
2	600000	600000	3	0.032653	240.18367	15355.1
2	600000	600000	3	0.032653	240.18367	15355.1
2	600000	600000	3	0.032653	240.18367	15355.1
2	600000	600000	3	0.032653	240.18367	15355.1
2	1000000	1000000	3	0.025	223.5	34500
2	1000000	1000000	3	0.025	223.5	34500
2	1000000	1000000	3	0.025	223.5	34500
2	1000000	1000000	3	0.025	223.5	34500
2	464000	464000	3	0.03	214.7	37500
2	464000	464000	3	0.03	214.7	37500
2	0	0	3	0	0	0
2	0	0	3	0	0	0
2	0	0	3	0	0	0
2	0	0	3	0	0	0
2	0	0	3	0	0	0
2	0	0	3	0	0	0
2	0	0	3	0	0	0
2	0	0	3	0	0	0
2	0	0	3	0	0	0
2	0	0	3	0	0	0
2	0	0	3	0	0	0
2	0	0	3	0	0	0
2	0	0	3	0	0	0
2	0	0	3	0	0	0
2	0	0	3	0	0	0
2	0	0	3	0	0	0
2	0	0	3	0	0	0
2	0	0	3	0	0	0
2	0	0	3	0	0	0
2	0	0	3	0	0	0
2	0	0	3	0	0	0
2	0	0	3	0	0	0
2	0	0	3	0	0	0
2	0	0	3	0	0	0
2	0	0	3	0	0	0
2	0	0	3	0	0	0
2	0	0	3	0	0	0
2	0	0	3	0	0	0
2	0	0	3	0	0	0
2	0	0	3	0	0	0
2	0	0	3	0	0	0
2	0	0	3	0	0	0
2	0	0	3	0	0	0
2	0	0	3	0	0	0
2	0	0	3	0	0	0
2	0	0	3	0	0	0
2	0	0	3	0	0	0
2	0	0	3	0	0	0
2	0	0	3	0	0	0
2	0	0	3	0	0	0
2	0	0	3	0	0	0
2	0	0	3	0	0	0
2	0	0	3	0	0	0
2	0	0	3	0	0	0
2	0	0	3	0	0	0
2	0	0	3	0	0	0
2	0	0	3	0	0	0
2	0	0	3	0	0	0
2	0	0	3	0	0	0
2	0	0	3	0	0	0
2	0	0	3	0	0	0
2	0	0	3	0	0	0
2	0	0	3	0	0	0
2	0	0	3	0	0	0
2	0	0	3	0	0	0
2	0	0	3	0	0	0
2	0	0	3	0	0	0
2	0	0	3	0	0	0
2	0	0	3	0	0	0
2	0	0	3	0	0	0
2	0	0	3	0	0	0
2	0	0	3	0	0	0
2	0	0	3	0	0	0
2	0	0	3	0	0	0
2	0	0	3	0	0	0
2	0	0	3	0	0	0
2	0	0	3	0	0	0
2	0	0	3	0	0	0
2	0	0	3	0	0	0
2	0	0	3	0	0	0
2	0	0	3	0	0	0
2	0	0	3	0	0	0
2	0	0	3	0	0	0
2	0	0	3	0	0	0
2	0	0	3	0	0	0
2	0	0	3	0	0	0
2	0	0	3	0	0	0
2	0	0	3	0	0	0
2	0	0	3	0	0	0
2	0	0	3	0	0	0
2	0	0	3	0	0	0
2	0	0	3	0	0	0
2	0	0	3	0	0	0
2	0	0	3	0	0	0
2	0	0	3	0	0	0
2	0	0	3	0	0	0
2	0	0	3	0	0	0
2	0	0	3	0	0	0
2	0	0	3	0	0	0
2	0	0	3	0	0	0
2	0	0	3	0	0	0
2	0	0	3	0	0	0
2	0	0	3	0	0	0
2	0	0	3	0	0	0
2	0	0	3	0	0	0
2	0	0	3	0	0	0
2	0	0	3	0	0	0
2	0	0	3	0	0	0
2	0	0	3	0	0	0
2	0	0	3	0	0	0
2	0	0	3	0	0	0
2	0	0	3	0	0	0
2	0	0	3	0	0	0
2	0	0	3	0	0	0
2	0	0	3	0	0	0
2	0	0	3	0	0	0
2	0	0	3	0	0	0
2	0	0	3	0	0	0
2	0	0	3	0	0	0
2	0	0	3	0	0	0
2	0	0	3	0	0	0
2	0	0	3	0	0	0
2	0	0	3	0	0	0
2	0	0	3	0	0	0
2	0	0	3	0	0	0
2	0	0	3	0	0	0
2	0	0	3	0	0	0
2	0	0	3	0	0	0
2	0	0	3	0	0	0
2	0	0	3	0	0	0
2	0	0	3	0	0	0
2	0	0	3	0	0	0
2	0	0	3	0	0	0
2	0	0	3	0	0	0
2	0	0	3	0	0	0
2	0	0	3	0	0	0
2	0	0	3	0	0	0
2	0	0	3	0	0	0
2	0	0	3	0	0	0
2	0	0	3	0	0	0
2	0	0	3	0	0	0
2	0	0	3	0	0	0
2	0	0	3	0	0	0
2	0	0	3	0	0	0
2	0	0	3	0	0	0
2	0	0	3	0	0	0
2	0	0	3	0	0	0
2	0	0	3	0	0	0
2	0	0	3	0	0	0
2	0	0	3	0	0	0
2	0	0	3	0	0	0
2	0	0	3	0	0	0
2	0	0	3	0	0	0
2	0	0	3	0	0	0
2	0	0	3	0	0	0
2	0	0	3	0	0	0
2	0	0	3	0	0	0
2	0	0	3	0	0	0
...

];

%column_names%	name    type    name
mpc.gen_name = {
'78'	'火电'	'Pingguo Aluminum power station Unit 2'
'78'	'火电'	'Pingguo Aluminum power station Unit 5'
'78'	'火电'	'Pingguo Aluminum power station Unit 6'
'45'	'火电'	'Beihai Mill 1'
'45'	'火电'	'Beihai Mill 2'
'69'	'火电'	'Baise Tiandong power station Unit 1'
'69'	'火电'	'Baise Tiandong power station Unit 2'
'69'	'火电'	'Tiandong Kamshing power station Unit 1'
'69'	'火电'	'Tiandong Kamshing power station Unit 2'
'68'	'火电'	'Baise Tianyang power station Unit 1'
'68'	'火电'	'Baise Tianyang power station Unit 2'
'51'	'火电'	'Jingui Mill power station Unit 1'
'51'	'火电'	'Jingui Mill power station Unit 2'
'68'	'火电'	'Suyuan power station Unit 1'
'77'	'火电'	'Jingxi Xinfa Aluminum power station Unit 1'
'77'	'火电'	'Jingxi Xinfa Aluminum power station Unit 2'
'77'	'火电'	'Jingxi Xinfa Aluminum power station Unit 3'
'30'	'火电'	'Guodian Yongfu 3'
'30'	'火电'	'Guodian Yongfu 4'
'95'	'火电'	'Laibin-A power station Unit 3'
'95'	'火电'	'Laibin-A power station Unit 4'
'45'	'火电'	'Beihai Bebuwan power station Unit 1'
'45'	'火电'	'Beihai Bebuwan power station Unit 2'
'99'	'火电'	'Datang Heshan power station Unit 10'
'99'	'火电'	'Datang Heshan power station Unit 9'
'68'	'火电'	'Baise Smelter 1'
'68'	'火电'	'Baise Smelter 2'
'78'	'火电'	'Guangxi Hualei power station Unit 1'
'78'	'火电'	'Guangxi Hualei power station Unit 2'
'78'	'火电'	'Guangxi Hualei power station Unit 3'
'19'	'火电'	'Guangxi Luzhai 1'
'19'	'火电'	'Guangxi Luzhai 2'
'77'	'火电'	'Jingxi Xinfa Aluminum power station Unit 4'
'95'	'火电'	'Laibin-B power station Unit 1'
'95'	'火电'	'Laibin-B power station Unit 2'
'55'	'火电'	'Huadian Guigang power station Unit 1'
'55'	'火电'	'Huadian Guigang power station Unit 2'
'47'	'火电'	'Fangchenggang Qisha 1'
'47'	'火电'	'Fangchenggang Qisha 2'
'51'	'火电'	'SDIC Qinzhou power station Unit 1'
'51'	'火电'	'SDIC Qinzhou power station Unit 2'
'47'	'火电'	'Fangchenggang Qisha 3'
'47'	'火电'	'Fangchenggang Qisha 4'
'12'	'火电'	'Guodian Nanning 1'
'12'	'火电'	'Guodian Nanning 2'
'99'	'火电'	'Datang Heshan power station Unit 11'
'83'	'火电'	'Hezhou 1'
'83'	'火电'	'Hezhou 2'
'51'	'火电'	'SDIC Qinzhou power station Unit 3'
'51'	'火电'	'SDIC Qinzhou power station Unit 4'
'47'	'核电'	'广西防城港核电站一期工程1号机组'
'47'	'核电'	'广西防城港核电站一期工程1号机组'
'3'	'光伏'	'广西农垦国有明阳农场农业光伏大棚项目'
'5'	'光伏'	'各村集资'
'7'	'光伏'	'浩德武鸣区宁武镇50MWp农业光伏电站'
'8'	'光伏'	'隆安生态农业园二期'
'8'	'光伏'	'隆安生态农业园'
'8'	'光伏'	'隆安药园中药材种苗种植园20MW农业光伏大棚'
'10'	'光伏'	'南宁市上林白圩镇渔光互补光伏发电项目'
'10'	'光伏'	'上林县40兆瓦集中式光伏扶贫电站'
'11'	'光伏'	'宾阳县古辣100MW渔光互补光伏发电综合利用项目'
'11'	'光伏'	'宾阳县马深农场光伏发电项目'
'18'	'光伏'	'柳州市走马牧场光伏大棚农业产业园'
'21'	'光伏'	'广西融水县古顶光伏发电项目'
'34'	'光伏'	'平乐守甸新能源有限公司60MW农光互补光伏发电项目'
'45'	'光伏'	'北海市铁山港区营盘镇石村40MW光伏农业大棚'
'45'	'光伏'	'黄鹂窝富农合作社光伏发电项目'
'45'	'光伏'	'南康黄鹂窝20MWp光伏发电项目'
'46'	'光伏'	'广西农垦国有珠光农场20MW农业光伏大棚项目'
'46'	'光伏'	'合浦县星岛湖20MW农业光伏大棚'
'46'	'光伏'	'信义合浦白沙渔光互补光伏电站'
'46'	'光伏'	'华电北海合浦山口55MW光伏发电项目'
'46'	'光伏'	'中电合浦乌家镇林光互补光伏发电项目'
'46'	'光伏'	'合浦县廉州农业光伏并网发电项目'
'46'	'光伏'	'15MW农业光伏大棚项目'
'47'	'光伏'	'港口区光坡镇80MW渔光互补光伏发电项目'
'48'	'光伏'	'防城港市旭日升55兆瓦光伏发电项目'
'49'	'光伏'	'上思县80MW光伏农业大棚并网'
'50'	'光伏'	'东兴市150MW渔光互补旅游综合示范项目'
'50'	'光伏'	'东兴市江平19.8MWp农业光伏发电项目'
'51'	'光伏'	'广西钦州康熙岭通威20MW “渔光一体”光伏发电项目'
'51'	'光伏'	'钦州市钦南区民海300MW平价+100MWp竞价光伏发电上网项'
'51'	'光伏'	'钦州康熙岭200MWp(一期60MWp)渔光互补光伏电站'
'56'	'光伏'	'贵港市八塘镇岑西60兆瓦农业大棚光伏发电项目'
'57'	'光伏'	'中国能建广西贵港覃塘区2000MW多能互补新能源发电项目'
'57'	'光伏'	'覃塘古平水库40MW渔光互补光伏发电项目'
'57'	'光伏'	'贵港覃塘区金沙60MWp农光互补光伏发电项目'
'60'	'光伏'	'玉柴桂平农光互补光伏发电项目'
'63'	'光伏'	'广西玉林市陆川县35MWp光伏并网发电项目'
'63'	'光伏'	'清湖镇40MW光伏并网发电项目'
'64'	'光伏'	'博白林场40MW农业光伏大棚项目'
'68'	'光伏'	'田阳县百育镇30MW光伏农业科技大棚项目'
'68'	'光伏'	'广西百色市田阳县那古光伏并网发电项目'
'69'	'光伏'	'甘莲沟18MWp光伏大棚项目'
'69'	'光伏'	'广西百色市田东县那鱼梁伏并网发电项目'
'71'	'光伏'	'坡县龙合乡20MWp农业光伏发电项目'
'74'	'光伏'	'田林县200MWp（1期60MWp）农业大棚'
'76'	'光伏'	'隆林县者保20MWp大型光伏发电项目'
'78'	'光伏'	'平果县旧城镇20MW农业光伏大棚'
'79'	'光伏'	'政府统一招投标建设50千瓦时光伏发电项目'
'82'	'光伏'	'贺州市8.554MW光伏电站项目'
'97'	'光伏'	'来宾市象州县150MWp光伏并网发电项目'
'98'	'光伏'	'广西武宣县禄新镇大荣书库30MW渔光互补光伏发电项目'
'101'	'光伏'	'崇左罗白120MWp农业光伏大棚项目'
'101'	'光伏'	'江州区50MWp农光互补项目一期'
'101'	'光伏'	'崇左光伏农业生态园项目'
'102'	'光伏'	'“中国乐养城”#1光伏发电站'
'103'	'光伏'	'广西崇左先锋水电站5MWp光伏并网发电项目'
'104'	'光伏'	'龙州县120MWp光伏发电项目（一期60MW）'
'5'	'风电'	'良庆墰清岭风电场工程'
'7'	'风电'	'武鸣安凤岭项目'
'9'	'风电'	'马山状元风电场'
'9'	'风电'	'马山协合杨圩风电场'
'9'	'风电'	'马山苏仅风电场'
'11'	'风电'	'宾阳风电项目'
'11'	'风电'	'虚拟'
'11'	'风电'	'宾阳马王风电场'
'12'	'风电'	'横县六景风电场'
'20'	'风电'	'白云岭风电场'
'21'	'风电'	'摩天岭风电场'
'21'	'风电'	'梓山坪风电场'
'21'	'风电'	'虚拟'
'21'	'风电'	'华电融水九元山风电项目'
'22'	'风电'	'三江独峒风电项目'
'22'	'风电'	'三江侗族自治县协合八江风电场'
'27'	'风电'	'灵川兰田风电场'
'27'	'风电'	'福家田风电场'
'27'	'风电'	'灵川海洋一期'
'28'	'风电'	'天湖风电场项目一期'
'28'	'风电'	'黄花岭风电场'
'28'	'风电'	'六字界风电场'
'28'	'风电'	'昌盛坪风电场'
'28'	'风电'	'青山口风电场'
'28'	'风电'	'迅风风电场'
'29'	'风电'	'源江、唐家冲风电场'
'29'	'风电'	'石板岭风电场'
'29'	'风电'	'界首一期风电项目'
'29'	'风电'	'虚拟'
'29'	'风电'	'平岭、西坑、殿堂、道坪项目'
'29'	'风电'	'兴安严关风电项目'
'30'	'风电'	'永安风电场'
'31'	'风电'	'俊风风电场'
'31'	'风电'	'灌阳马头风电场'
'31'	'风电'	'灌阳正江岭风电场'
'32'	'风电'	'南山风电场'
'33'	'风电'	'马家风电场'
'33'	'风电'	'十万古田风电场'
'33'	'风电'	'中电投金紫山风电场项目'
'34'	'风电'	'白蔑风电场'
'35'	'风电'	'燕子山风电场'
'35'	'风电'	'园石山风电场'
'35'	'风电'	'西岭风电场'
'35'	'风电'	'门楼风电场'
'35'	'风电'	'蜜源风电场'
'39'	'风电'	'广西岭脚风电项目一期'
'39'	'风电'	'虚拟'
'39'	'风电'	'苍梧六堡一期'
'42'	'风电'	'岑溪大隆风电场'
'46'	'风电'	'合浦曲樟风电场'
'46'	'风电'	'虚拟'
'46'	'风电'	'博白马子岭风电场一期'
'48'	'风电'	'虚拟'
'48'	'风电'	'南山风力发电项目'
'51'	'风电'	'钦州钦南低风速试验风电场项目'
'51'	'风电'	'风门岭风电场一期'
'53'	'风电'	'灵山大怀山风电场'
'53'	'风电'	'虚拟'
'53'	'风电'	'灵山八一茶场风电场'
'54'	'风电'	'浦北龙门风电二期'
'54'	'风电'	'虚拟'
'54'	'风电'	'浦北龙门风电一期'
'55'	'风电'	'七星岭风电场'
'56'	'风电'	'港南木格风电场'
'56'	'风电'	'虚拟'
'56'	'风电'	'白花山风电场'
'57'	'风电'	'华能覃塘镇龙山风力发电项目'
'57'	'风电'	'镇龙山风电场'
'58'	'风电'	'平南东平风电场'
'62'	'风电'	'玉林六坪顶风电项目'
'62'	'风电'	'北流隆盛风电场'
'62'	'风电'	'天堂顶风电场'
'62'	'风电'	'容县杨村风电项目'
'64'	'风电'	'220千伏凤屏风电场'
'64'	'风电'	'博白云飞嶂99.96MW风电'
'64'	'风电'	'虚拟'
'64'	'风电'	'博白射广嶂风电场'
'64'	'风电'	'博白马子岭风电场一期'
'64'	'风电'	'博白四方岭风电场'
'65'	'风电'	'龙安风电场'
'65'	'风电'	'葵阳风电场'
'66'	'风电'	'北流大冲山46.2风电场'
'66'	'风电'	'广西北流望江风电场项目'
'66'	'风电'	'北流市清湾风电场'
'66'	'风电'	'玉林大容山风电场'
'68'	'风电'	'田阳玉凤风电场'
'69'	'风电'	'虚拟'
'69'	'风电'	'百色田东江北100MW风电项目'
'73'	'风电'	'乐业逻沙风电场'
'79'	'风电'	'大桂山风电场'
'82'	'风电'	'钟山东岭风电场'
...
    };
